*SPEF "IEEE 1481-1998"
*DESIGN "top"
*DATE "Tue Nov 21 14:21:58 2023"
*VENDOR "Cadence Design Systems, Inc."
*PROGRAM "Innovus"
*VERSION "18.13-s088_1"
*DESIGN_FLOW "PIN_CAP NONE" "NAME_SCOPE LOCAL"
*DIVIDER /
*DELIMITER :
*BUS_DELIMITER []
*T_UNIT 1 NS
*C_UNIT 1 PF
*R_UNIT 1 OHM
*L_UNIT 1 HENRY

// MMMC spef file for corner 'default_rc_corner'

*NAME_MAP

*1 clk
*2 rst_n
*3 input1[7]
*4 input1[6]
*5 input1[5]
*6 input1[4]
*7 input1[3]
*8 input1[2]
*9 input1[1]
*10 input1[0]
*11 input2[7]
*12 input2[6]
*13 input2[5]
*14 input2[4]
*15 input2[3]
*16 input2[2]
*17 input2[1]
*18 input2[0]
*19 output1[7]
*20 output1[6]
*21 output1[5]
*22 output1[4]
*23 output1[3]
*24 output1[2]
*25 output1[1]
*26 output1[0]
*27 r_temp2[7]
*28 r_temp2[6]
*29 r_temp2[5]
*30 r_temp2[4]
*31 r_temp2[3]
*32 r_temp2[2]
*33 r_temp2[1]
*34 r_temp2[0]
*35 UNCONNECTED
*36 UNCONNECTED0
*37 UNCONNECTED1
*38 UNCONNECTED2
*39 UNCONNECTED3
*40 UNCONNECTED4
*41 UNCONNECTED5
*42 UNCONNECTED6
*43 n_0
*44 n_1
*45 n_2
*46 n_3
*47 n_4
*48 n_5
*49 n_6
*50 n_7
*51 n_8
*52 n_9
*53 n_10
*54 n_11
*55 n_12
*56 n_13
*57 n_14
*58 n_15
*59 TSV_GEN\[0\]\.TSV0
*60 TSV_GEN\[1\]\.TSV0
*61 TSV_GEN\[2\]\.TSV0
*62 TSV_GEN\[3\]\.TSV0
*63 TSV_GEN\[4\]\.TSV0
*64 TSV_GEN\[5\]\.TSV0
*65 TSV_GEN\[6\]\.TSV0
*66 TSV_GEN\[7\]\.TSV0
*67 r_temp2_reg\[7\]
*68 g650
*69 r_temp2_reg\[6\]
*70 g652
*71 r_temp2_reg\[5\]
*72 g654
*73 r_temp2_reg\[4\]
*74 g656
*75 r_temp2_reg\[3\]
*76 g658
*77 r_temp2_reg\[2\]
*78 g660
*79 r_temp2_reg\[1\]
*80 g662
*81 r_temp2_reg\[0\]
*82 g664
*83 g665


*PORTS

*1 I *C 0 0
*2 I *C 0 0
*3 I *C 0 0
*4 I *C 0 0
*5 I *C 0 0
*6 I *C 0 0
*7 I *C 0 0
*8 I *C 0 0
*9 I *C 0 0
*10 I *C 0 0
*11 I *C 0 0
*12 I *C 0 0
*13 I *C 0 0
*14 I *C 0 0
*15 I *C 0 0
*16 I *C 0 0
*17 I *C 0 0
*18 I *C 0 0
*19 O *C 0 0
*20 O *C 0 0
*21 O *C 0 0
*22 O *C 0 0
*23 O *C 0 0
*24 O *C 0 0
*25 O *C 0 0
*26 O *C 0 0


*D_NET *1 0.00398789

*CONN
*I *73:CK I *C 32.885 16.83 *L 0.000977 *D DFFR_X1
*I *81:CK I *C 29.085 16.83 *L 0.000977 *D DFFR_X1
*I *79:CK I *C 33.265 20.88 *L 0.000977 *D DFFR_X1
*I *71:CK I *C 37.065 20.88 *L 0.000977 *D DFFR_X1
*I *77:CK I *C 35.735 26.61 *L 0.000977 *D DFFR_X1
*I *67:CK I *C 34.595 30.66 *L 0.000977 *D DFFR_X1
*I *75:CK I *C 30.415 30.66 *L 0.000977 *D DFFR_X1
*I *69:CK I *C 37.255 25.77 *L 0.000977 *D DFFR_X1
*P *1 I *C 0 0 *L 0

*CAP
1 *1:0 1.35333e-05
2 *1:1 0.000257133
3 *1:2 6.27805e-06
4 *1:3 0.000230699
5 *1:4 0.0002436
6 *1:5 6.27805e-06
7 *1:6 0.000230699
8 *1:7 6.27805e-06
9 *1:9 5.21033e-05
10 *1:10 6.27805e-06
11 *1:11 6.496e-05
12 *81:CK 1.91069e-05
13 *1:13 0.000106237
14 *1:14 0.000244277
15 *1:15 1.28567e-05
16 *1:16 0.000376403
17 *1:17 0.000163753
18 *1:19 0.000629142
19 *1:22 0.000252739
20 *1:23 7.37567e-05
21 *1:25 3.23573e-06
22 *1:26 0.00017052
23 *1:27 0.000273743
24 *1:28 9.67633e-05
25 *1:30 0.000270507
26 *1:31 6.07659e-06
27 *1:32 6.07102e-05
28 *1:34 6.07659e-06
29 *1:35 6.07659e-06
30 *1:36 6.07102e-05
31 *1:37 6.07659e-06
32 *1:39 6.09e-06
33 *1:41 6.09e-06
34 *1 1.91069e-05

*RES
1 *81:CK *1 0.116923
2 *1:42 *69:CK 4
3 *1:41 *1:42 4
4 *1:39 *1:41 0.0977143
5 *1:37 *75:CK 4
6 *1:36 *1:39 4
7 *1:35 *67:CK 4
8 *1:34 *1:37 0.103143
9 *1:32 *1:36 0.515714
10 *1:31 *1:35 0.103143
11 *1:30 *1:34 4
12 *1:29 *77:CK 4
13 *1:28 *1:32 4
14 *1:27 *1:31 4
15 *1:27 *1:30 4.53829
16 *1:26 *1:29 4
17 *1:26 *1:28 1.55257
18 *1:25 *1:27 0.0542857
19 *1:23 *1:26 1.18343
20 *1:22 *1:25 4
21 *1:20 *71:CK 4
22 *1:19 *1:23 4
23 *1:19 *1:22 2.166
24 *1:18 *79:CK 4
25 *1:17 *1:20 4
26 *1:16 *1:19 3.19743
27 *1:15 *1:18 4
28 *1:14 *1:17 2.62743
29 *1:14 *1:16 4
30 *1:13 *1:15 0.206286
31 *1:13 *1:14 1.292
32 *1:11 *1:13 0.206286
33 *1:10 *81:CK 4
34 *1:9 *1:11 0.836
35 *1:7 *1:10 0.103143
36 *1:6 *1:9 4
37 *1:5 *73:CK 4
38 *1:4 *1:7 4
39 *1:3 *1:6 1.95971
40 *1:2 *1:5 0.103143
41 *1:1 *1:4 3.90857
42 *1:1 *1:3 4
43 *1:0 *1:2 4
44 *1:0 *1:1 0.217143
*END

*D_NET *2 0.00398163

*CONN
*I *73:RN I *C 31.565 17.575 *L 0.00178 *D DFFR_X1
*I *79:RN I *C 31.945 20.135 *L 0.00178 *D DFFR_X1
*I *81:RN I *C 27.765 17.575 *L 0.00178 *D DFFR_X1
*I *71:RN I *C 35.745 20.135 *L 0.00178 *D DFFR_X1
*I *69:RN I *C 35.935 25.025 *L 0.00178 *D DFFR_X1
*I *77:RN I *C 34.415 27.355 *L 0.00178 *D DFFR_X1
*I *67:RN I *C 33.275 29.915 *L 0.00178 *D DFFR_X1
*I *75:RN I *C 29.095 29.915 *L 0.00178 *D DFFR_X1
*P *2 I *C 0 0 *L 0

*CAP
1 *2:0 4.15848e-05
2 *2:1 0.000152478
3 *2:2 6.93081e-05
4 *2:3 0.000152478
5 *2:4 4.15848e-05
6 *2:5 0.000174686
7 *2:6 8.501e-05
8 *2:7 1.34374e-05
9 *2:8 0.000201561
10 *2:9 7.11484e-05
11 *2:10 1.34374e-05
12 *2:11 0.000124755
13 *2:12 2.68748e-05
14 *2:13 1.32705e-05
15 *2:15 0.000138616
16 *2:17 1.32705e-05
17 *2:18 9.70313e-05
18 *81:RN 1.91069e-05
19 *2:20 9.70313e-05
20 *2:21 8.31697e-05
21 *2:22 6.93081e-05
22 *2:23 2.68748e-05
23 *2:24 6.7187e-05
24 *2:25 6.7187e-05
25 *2:27 0.000335935
26 *2:28 0.000349373
27 *2:29 4.03122e-05
28 *2:31 0.000124755
29 *2:32 0.000124755
30 *2:33 5.37496e-05
31 *2:34 0.000134221
32 *2:35 0.000105019
33 *2:37 0.000159558
34 *2:38 0.000135011
35 *2:39 0.000269721
36 *2:41 0.000269721
37 *2 1.91069e-05

*RES
1 *81:RN *2 0.116923
2 *2:42 *75:RN 4
3 *2:41 *2:42 4
4 *2:39 *2:41 2.926
5 *2:38 *67:RN 4
6 *2:38 *2:39 4
7 *2:37 *2:38 1.70186
8 *2:35 *2:37 0.309429
9 *2:34 *77:RN 4
10 *2:34 *2:35 1.05758
11 *2:33 *2:34 0.706988
12 *2:32 *2:33 4
13 *2:31 *2:32 1.5527
14 *2:29 *2:31 4
15 *2:28 *69:RN 4
16 *2:28 *2:29 0.530241
17 *2:27 *2:28 4.06518
18 *2:25 *2:27 0.353494
19 *2:24 *71:RN 4
20 *2:24 *2:25 0.530241
21 *2:23 *2:24 0.353494
22 *2:22 *2:23 4
23 *2:21 *2:22 0.862609
24 *2:20 *2:21 0.172522
25 *2:18 *2:20 1.03513
26 *2:17 *81:RN 4
27 *2:15 *2:18 0.172522
28 *2:13 *2:17 0.169849
29 *2:12 *79:RN 4
30 *2:11 *2:15 1.5527
31 *2:10 *73:RN 4
32 *2:9 *2:13 4
33 *2:8 *2:12 0.353494
34 *2:8 *2:11 4
35 *2:7 *2:10 0.176747
36 *2:6 *2:9 0.855758
37 *2:5 *2:8 2.29771
38 *2:4 *2:7 4
39 *2:3 *2:6 0.172522
40 *2:2 *2:5 4
41 *2:2 *2:4 0.517565
42 *2:1 *2:3 1.72522
43 *2:0 *2:2 0.345044
44 *2:0 *2:1 0.172522
*END

*D_NET *27 0.00109104

*CONN
*I *67:Q O *C 31.11 30.895 *L 0 *D DFFR_X1
*I *66:data_in I *C 22.03 30.5 *L 0 *D TSV

*CAP
1 *67:Q 2.45201e-05
2 *27:1 2.45201e-05
3 *27:2 7.36423e-05
4 *27:3 7.36423e-05
5 *27:4 0.00044736
6 *66:data_in 0.00044736

*RES
1 *27:4 *66:data_in 4.85202
2 *27:3 *27:4 4
3 *27:2 *27:3 0.928286
4 *27:1 *27:2 4
5 *67:Q *27:1 0.266
*END

*D_NET *28 0.00167939

*CONN
*I *69:Q O *C 33.77 26.005 *L 0 *D DFFR_X1
*I *65:data_in I *C 22.03 25.5 *L 0 *D TSV

*CAP
1 *28:1 0.000134374
2 *28:2 0.000134374
3 *28:3 2.77232e-05
4 *28:4 4.13741e-05
5 *28:5 0.000148512
6 *28:6 0.000147121
7 *28:7 0.000458797
8 *28:8 0.000473316
9 *28:9 7.0288e-05
10 *65:data_in 4.35096e-05

*RES
1 *28:9 *65:data_in 0.5104
2 *28:8 *28:9 0.30156
3 *28:7 *28:8 4.84324
4 *28:6 *28:7 0.133
5 *28:5 *28:6 1.463
6 *28:4 *28:5 0.167322
7 *28:3 *28:4 0.345044
8 *28:2 *28:3 4
9 *28:1 *28:2 1.76747
10 *69:Q *28:1 4
*END

*D_NET *29 0.00182415

*CONN
*I *71:Q O *C 33.58 21.115 *L 0 *D DFFR_X1
*I *64:data_in I *C 22.03 20.5 *L 0 *D TSV

*CAP
1 *29:1 0.000134374
2 *29:2 0.000134374
3 *29:3 2.77232e-05
4 *29:4 5.54465e-05
5 *29:5 0.000677463
6 *29:6 0.000678746
7 *29:7 7.2516e-05
8 *64:data_in 4.35096e-05

*RES
1 *29:7 *64:data_in 0.5104
2 *29:6 *29:7 0.340267
3 *29:5 *29:6 7.89094
4 *29:4 *29:5 0.345044
5 *29:3 *29:4 0.345044
6 *29:2 *29:3 4
7 *29:1 *29:2 1.76747
8 *71:Q *29:1 4
*END

*D_NET *30 0.000993283

*CONN
*I *73:Q O *C 29.4 16.595 *L 0 *D DFFR_X1
*I *63:data_in I *C 22.03 15.5 *L 0 *D TSV

*CAP
1 *30:1 8.06244e-05
2 *30:2 8.06244e-05
3 *30:3 0.000416017
4 *63:data_in 0.000416017

*RES
1 *30:3 *63:data_in 4.9509
2 *30:2 *30:3 4
3 *30:1 *30:2 1.06048
4 *73:Q *30:1 4
*END

*D_NET *31 0.00127392

*CONN
*I *62:data_in I *C 17.03 30.5 *L 0 *D TSV
*I *75:Q O *C 26.93 30.895 *L 0 *D DFFR_X1

*CAP
1 *31:0 2.50687e-05
2 *31:1 3.64586e-05
3 *31:2 3.7603e-05
4 *31:3 3.64586e-05
5 *31:4 0.000263221
6 *31:5 6.26717e-05
7 *31:6 0.000263221
8 *62:data_in 6.26717e-05
9 *31:8 3.7603e-05
10 *31:9 2.50687e-05
11 *31:10 1.21529e-05
12 *31:11 3.64586e-05
13 *31:12 2.43058e-05
14 *31:13 2.50687e-05
15 *31:14 3.7603e-05
16 *31:15 0.000112809
17 *31:16 0.000112809
18 *31:17 3.7603e-05
19 *75:Q 2.50687e-05

*RES
1 *31:17 *75:Q 0.271855
2 *31:16 *31:17 0.135927
3 *31:15 *31:16 1.08742
4 *31:14 *31:15 0.135927
5 *31:13 *31:14 0.271855
6 *31:12 *31:13 4
7 *31:11 *31:12 0.309429
8 *31:10 *31:11 0.154714
9 *31:9 *31:10 4
10 *31:8 *31:9 0.271855
11 *31:6 *31:8 0.135927
12 *31:5 *62:data_in 0.679637
13 *31:4 *31:6 2.71855
14 *31:3 *31:5 4
15 *31:2 *31:4 0.135927
16 *31:1 *31:3 0.464143
17 *31:0 *31:2 0.271855
18 *31:0 *31:1 4
*END

*D_NET *32 0.00246388

*CONN
*I *61:data_in I *C 17.03 25.5 *L 0 *D TSV
*I *77:Q O *C 32.25 26.375 *L 0 *D DFFR_X1

*CAP
1 *32:0 2.90064e-05
2 *32:1 3.98115e-05
3 *32:2 3.6258e-05
4 *32:3 3.98115e-05
5 *32:4 0.000340825
6 *32:5 7.2516e-05
7 *32:6 0.000355328
8 *61:data_in 7.2516e-05
9 *32:8 0.00055996
10 *32:9 0.000565929
11 *32:10 5.54465e-05
12 *32:11 2.77232e-05
13 *32:12 0.000134374
14 *32:13 0.000134374

*RES
1 *32:13 *77:Q 4
2 *32:12 *32:13 1.76747
3 *32:11 *32:12 4
4 *32:10 *32:11 0.345044
5 *32:9 *32:10 0.345044
6 *32:8 *32:9 6.51315
7 *32:6 *32:8 0.2552
8 *32:5 *61:data_in 0.850667
9 *32:4 *32:6 3.91307
10 *32:3 *32:5 4
11 *32:2 *32:4 0.0850667
12 *32:1 *32:3 0.509546
13 *32:0 *32:2 0.340267
14 *32:0 *32:1 4
*END

*D_NET *33 0.00182877

*CONN
*I *60:data_in I *C 17.03 20.5 *L 0 *D TSV
*I *79:Q O *C 29.78 21.115 *L 0 *D DFFR_X1

*CAP
1 *33:0 0.000720584
2 *33:1 3.98115e-05
3 *33:2 0.000720584
4 *33:3 3.98115e-05
5 *33:4 5.37496e-05
6 *33:5 7.2516e-05
7 *33:6 5.37496e-05
8 *60:data_in 7.2516e-05
9 *33:8 2.77232e-05
10 *79:Q 2.77232e-05

*RES
1 *33:8 *79:Q 0.345044
2 *33:6 *33:8 4
3 *33:5 *60:data_in 0.850667
4 *33:4 *33:6 0.706988
5 *33:3 *33:5 4
6 *33:2 *33:4 4
7 *33:1 *33:3 0.509546
8 *33:0 *33:2 8.52371
9 *33:0 *33:1 4
*END

*D_NET *34 0.00153079

*CONN
*I *59:data_in I *C 17.03 15.5 *L 0 *D TSV
*I *81:Q O *C 25.6 16.595 *L 0 *D DFFR_X1

*CAP
1 *34:0 2.90064e-05
2 *34:1 5.3082e-05
3 *34:2 5.75613e-05
4 *34:3 5.3082e-05
5 *34:4 0.000281655
6 *34:5 7.2516e-05
7 *34:6 0.000281655
8 *59:data_in 7.2516e-05
9 *34:8 5.75613e-05
10 *34:9 2.90064e-05
11 *34:10 2.6541e-05
12 *34:11 3.98115e-05
13 *34:12 0.000132705
14 *34:13 0.000132705
15 *34:14 3.98115e-05
16 *34:15 2.6541e-05
17 *34:16 7.2516e-05
18 *81:Q 7.2516e-05

*RES
1 *34:16 *81:Q 0.850667
2 *34:15 *34:16 4
3 *34:14 *34:15 0.339697
4 *34:13 *34:14 0.169849
5 *34:12 *34:13 1.52864
6 *34:11 *34:12 0.169849
7 *34:10 *34:11 0.339697
8 *34:9 *34:10 4
9 *34:8 *34:9 0.340267
10 *34:6 *34:8 0.333427
11 *34:5 *59:data_in 0.850667
12 *34:4 *34:6 2.793
13 *34:3 *34:5 4
14 *34:2 *34:4 0.333427
15 *34:1 *34:3 0.679395
16 *34:0 *34:2 0.340267
17 *34:0 *34:1 4
*END

*D_NET *43 0.000303259

*CONN
*I *83:ZN O *C 28.94 27.17 *L 0 *D XNOR2_X1
*I *68:B I *C 31.32 27.03 *L 0.00257 *D XNOR2_X1

*CAP
1 *83:ZN 0.000124755
2 *43:1 0.000124755
3 *43:2 2.68748e-05
4 *43:3 2.68748e-05

*RES
1 *43:3 *68:B 4
2 *43:2 *43:3 0.353494
3 *43:1 *43:2 3.44898
4 *83:ZN *43:1 1.5527
*END

*D_NET *44 0.0016535

*CONN
*I *80:CI I *C 26.85 20.88 *L 0.00276 *D FA_X1
*I *82:CO O *C 35.02 16.56 *L 0 *D HA_X1

*CAP
1 *44:0 0.000599814
2 *44:1 0.000119435
3 *44:2 0.000599814
4 *44:3 0.000119435
5 *44:4 0.000107499
6 *44:6 0.000107499

*RES
1 *44:6 *82:CO 4
2 *44:4 *44:6 1.41398
3 *44:3 *80:CI 4
4 *44:2 *44:4 4
5 *44:1 *44:3 1.52864
6 *44:0 *44:2 7.40442
7 *44:0 *44:1 4
*END

*D_NET *45 0.000802277

*CONN
*I *82:S O *C 33.31 16.7 *L 0 *D HA_X1
*I *81:D I *C 28.66 16.97 *L 0.00113 *D DFFR_X1

*CAP
1 *82:S 1.38616e-05
2 *45:1 1.38616e-05
3 *45:3 2.77232e-05
4 *45:4 4.15848e-05
5 *45:5 9.70313e-05
6 *45:6 9.70313e-05
7 *45:7 0.000235647
8 *45:8 0.000221786
9 *45:9 2.68748e-05
10 *45:10 2.68748e-05

*RES
1 *45:10 *81:D 4
2 *45:9 *45:10 0.353494
3 *45:8 *45:9 4
4 *45:7 *45:8 2.76035
5 *45:6 *45:7 0.172522
6 *45:5 *45:6 1.03513
7 *45:4 *45:5 0.172522
8 *45:3 *45:4 0.345044
9 *45:2 *45:3 4
10 *45:1 *45:2 4
11 *82:S *45:1 0.172522
*END

*D_NET *46 0.000854243

*CONN
*I *80:CO O *C 26.28 21.105 *L 0 *D FA_X1
*I *78:CI I *C 25.9 26.61 *L 0.00276 *D FA_X1

*CAP
1 *80:CO 2.90064e-05
2 *46:1 2.90064e-05
3 *46:2 0.000398115
4 *46:3 0.000398115

*RES
1 *46:3 *78:CI 4
2 *46:2 *46:3 5.09546
3 *46:1 *46:2 4
4 *80:CO *46:1 0.340267
*END

*D_NET *47 0.000553616

*CONN
*I *80:S O *C 29.11 21.105 *L 0 *D FA_X1
*I *79:D I *C 32.84 20.74 *L 0.00113 *D DFFR_X1

*CAP
1 *80:S 2.77232e-05
2 *47:1 2.77232e-05
3 *47:3 0.000235647
4 *47:4 0.000235647
5 *47:5 1.34374e-05
6 *47:6 1.34374e-05

*RES
1 *47:6 *79:D 4
2 *47:5 *47:6 0.176747
3 *47:4 *47:5 4
4 *47:3 *47:4 2.93287
5 *47:2 *47:3 4
6 *47:1 *47:2 4
7 *80:S *47:1 0.345044
*END

*D_NET *48 0.000454241

*CONN
*I *78:CO O *C 25.33 26.385 *L 0 *D FA_X1
*I *76:CI I *C 27.61 25.77 *L 0.00276 *D FA_X1

*CAP
1 *48:1 5.3082e-05
2 *48:2 5.3082e-05
3 *48:3 0.000174038
4 *48:4 0.000174038

*RES
1 *48:5 *76:CI 4
2 *48:4 *48:5 4
3 *48:3 *48:4 2.0416
4 *48:2 *48:3 4
5 *48:1 *48:2 0.679395
6 *78:CO *48:1 4
*END

*D_NET *49 0.00102576

*CONN
*I *78:S O *C 28.16 26.385 *L 0 *D FA_X1
*I *77:D I *C 35.31 26.75 *L 0.00113 *D DFFR_X1

*CAP
1 *49:2 0.00051288
2 *49:3 0.00051288

*RES
1 *49:4 *77:D 4
2 *49:3 *49:4 4
3 *49:2 *49:3 6.38331
4 *49:1 *49:2 4
5 *78:S *49:1 4
*END

*D_NET *50 0.000612909

*CONN
*I *76:CO O *C 27.04 25.995 *L 0 *D FA_X1
*I *74:CI I *C 27.8 21.72 *L 0.00276 *D FA_X1

*CAP
1 *76:CO 1.45032e-05
2 *50:1 1.45032e-05
3 *50:2 0.000238869
4 *50:3 0.000278681
5 *50:4 5.3082e-05
6 *50:5 1.32705e-05

*RES
1 *50:5 *74:CI 4
2 *50:4 *50:5 0.169849
3 *50:3 *50:4 0.509546
4 *50:2 *50:3 3.05728
5 *50:1 *50:2 4
6 *76:CO *50:1 0.170133
*END

*D_NET *51 0.000629034

*CONN
*I *76:S O *C 29.87 25.995 *L 0 *D FA_X1
*I *75:D I *C 29.99 30.52 *L 0.00113 *D DFFR_X1

*CAP
1 *51:1 0.000314517
2 *51:2 0.000314517

*RES
1 *51:2 *75:D 4
2 *51:1 *51:2 4.05199
3 *76:S *51:1 4
*END

*D_NET *52 0.00103072

*CONN
*I *74:CO O *C 27.23 21.495 *L 0 *D FA_X1
*I *72:CI I *C 34.26 21.72 *L 0.00276 *D FA_X1

*CAP
1 *52:2 0.000515362
2 *52:3 0.000515362

*RES
1 *52:4 *72:CI 4
2 *52:3 *52:4 4
3 *52:2 *52:3 6.37407
4 *52:1 *52:2 4
5 *74:CO *52:1 4
*END

*D_NET *53 0.00103312

*CONN
*I *73:D I *C 32.46 16.97 *L 0.00113 *D DFFR_X1
*I *74:S O *C 30.06 21.495 *L 0 *D FA_X1

*CAP
1 *53:0 0.000322498
2 *53:1 0.000322498
3 *53:3 2.77232e-05
4 *53:4 4.15848e-05
5 *53:5 0.000124755
6 *53:6 0.000124755
7 *53:7 4.15848e-05
8 *74:S 2.77232e-05

*RES
1 *53:7 *74:S 0.345044
2 *53:6 *53:7 0.172522
3 *53:5 *53:6 1.38017
4 *53:4 *53:5 0.172522
5 *53:3 *53:4 0.345044
6 *53:1 *53:3 4
7 *53:0 *73:D 4
8 *53:0 *53:1 4.24193
*END

*D_NET *54 0.000844149

*CONN
*I *72:CO O *C 33.69 21.495 *L 0 *D FA_X1
*I *70:CI I *C 31.22 25.77 *L 0.00276 *D FA_X1

*CAP
1 *72:CO 0.000180201
2 *54:1 0.000180201
3 *54:2 0.000241873
4 *54:3 0.000241873

*RES
1 *54:3 *70:CI 4
2 *54:2 *54:3 3.18145
3 *54:1 *54:2 4
4 *72:CO *54:1 2.24278
*END

*D_NET *55 0.000134374

*CONN
*I *72:S O *C 36.52 21.495 *L 0 *D FA_X1
*I *71:D I *C 36.64 20.74 *L 0.00113 *D DFFR_X1

*CAP
1 *55:1 6.7187e-05
2 *55:2 6.7187e-05

*RES
1 *55:2 *71:D 4
2 *55:1 *55:2 0.883735
3 *72:S *55:1 4
*END

*D_NET *56 0.000214998

*CONN
*I *70:CO O *C 30.65 25.995 *L 0 *D FA_X1
*I *68:A I *C 31.155 26.58 *L 0.00223 *D XNOR2_X1

*CAP
1 *56:1 5.37496e-05
2 *56:2 9.40618e-05
3 *56:3 5.37496e-05
4 *56:4 1.34374e-05

*RES
1 *56:4 *68:A 4
2 *56:3 *56:4 0.176747
3 *56:2 *56:3 0.530241
4 *56:1 *56:2 0.706988
5 *70:CO *56:1 4
*END

*D_NET *57 0.000471295

*CONN
*I *70:S O *C 33.48 25.995 *L 0 *D FA_X1
*I *69:D I *C 36.83 25.63 *L 0.00113 *D DFFR_X1

*CAP
1 *57:2 0.000235647
2 *57:3 0.000235647

*RES
1 *57:4 *69:D 4
2 *57:3 *57:4 4
3 *57:2 *57:3 2.93287
4 *57:1 *57:2 4
5 *70:S *57:1 4
*END

*D_NET *58 0.000732798

*CONN
*I *68:ZN O *C 31.6 27.17 *L 0 *D XNOR2_X1
*I *67:D I *C 34.17 30.52 *L 0.00113 *D DFFR_X1

*CAP
1 *58:1 9.04176e-05
2 *58:2 9.04176e-05
3 *58:3 0.000159381
4 *58:4 0.000159381
5 *58:5 0.0001166
6 *58:6 0.0001166

*RES
1 *58:6 *67:D 4
2 *58:5 *58:6 1.46979
3 *58:4 *58:5 4
4 *58:3 *58:4 1.729
5 *58:2 *58:3 4
6 *58:1 *58:2 1.16823
7 *68:ZN *58:1 4
*END

