*SPEF "IEEE 1481-1998"
*DESIGN "detector110"
*DATE "Tue Nov 21 10:19:20 pm 2023"
*VENDOR "Cadence Design Systems"
*PROGRAM "Genus(TM) Synthesis Solution"
*VERSION "18.13-s027_1"
*DESIGN_FLOW "PIN_CAP NONE" "NAME_SCOPE LOCAL"
*DIVIDER /
*DELIMITER :
*BUS_DELIMITER []
*T_UNIT 1 NS
*C_UNIT 1 PF
*R_UNIT 1 OHM
*L_UNIT 1 HENRY
// Wireload mode: enclosed

*NAME_MAP

*1 a
*2 clk
*3 reset
*4 w
*5 state[0]
*6 state[1]
*7 n_0
*8 w
*9 n_2
*10 n_3
*11 n_4
*12 n_5
*13 n_6
*14 n_7
*15 n_8
*16 clk
*17 a
*18 reset
*19 state_reg[0]
*20 state_reg[1]
*21 g218
*22 g217
*23 g219
*24 g220
*25 g221
*26 g222
*27 g223
*28 g224

*PORTS

*1 I
*2 I
*3 I
*4 O

*D_NET *5 0.000700

*CONN
*I *27:A2 I *L 0.0017 *D NAND2_X1
*I *22:B2 I *L 0.0016 *D OAI222_X1
*I *19:Q O *L 0.0000 *D DFF_X1

*CAP
1 *5:1 0.0003
2 *5:2 0.0004

*RES
1 *19:Q *5:1 3517.25
2 *5:1 *27:A2 3517.25
3 *19:Q *5:2 3517.25
4 *5:2 *22:B2 3517.25
*END

*D_NET *6 0.001100

*CONN
*I *24:A1 I *L 0.0016 *D NAND3_X1
*I *23:A1 I *L 0.0009 *D OR2_X1
*I *27:A1 I *L 0.0016 *D NAND2_X1
*I *20:Q O *L 0.0000 *D DFF_X1

*CAP
1 *6:1 0.0003
2 *6:2 0.0004
3 *6:3 0.0004

*RES
1 *20:Q *6:1 3846.833333
2 *6:1 *24:A1 3846.833333
3 *20:Q *6:2 3846.833333
4 *6:2 *23:A1 3846.833333
5 *20:Q *6:3 3846.833333
6 *6:3 *27:A1 3846.833333
*END

*D_NET *7 0.000700

*CONN
*I *22:C1 I *L 0.0016 *D OAI222_X1
*I *26:A I *L 0.0017 *D INV_X1
*I *27:ZN O *L 0.0000 *D NAND2_X1

*CAP
1 *7:1 0.0003
2 *7:2 0.0004

*RES
1 *27:ZN *7:1 3517.25
2 *7:1 *22:C1 3517.25
3 *27:ZN *7:2 3517.25
4 *7:2 *26:A 3517.25
*END

*D_NET *8 0.000300

*CONN
*P *4 O
*I *26:ZN O *L 0.0000 *D INV_X1

*CAP
1 *8:1 0.0003

*RES
1 *26:ZN *8:1 3118
2 *8:1 *4 3118
*END

*D_NET *9 0.000700

*CONN
*I *24:A3 I *L 0.0017 *D NAND3_X1
*I *25:A1 I *L 0.0016 *D NAND2_X1
*I *28:ZN O *L 0.0000 *D INV_X1

*CAP
1 *9:1 0.0003
2 *9:2 0.0004

*RES
1 *28:ZN *9:1 3517.25
2 *9:1 *24:A3 3517.25
3 *28:ZN *9:2 3517.25
4 *9:2 *25:A1 3517.25
*END

*D_NET *10 0.000700

*CONN
*I *21:B2 I *L 0.0016 *D OAI21_X1
*I *24:A2 I *L 0.0016 *D NAND3_X1
*I *19:QN O *L 0.0000 *D DFF_X1

*CAP
1 *10:1 0.0003
2 *10:2 0.0004

*RES
1 *19:QN *10:1 3517.25
2 *10:1 *21:B2 3517.25
3 *19:QN *10:2 3517.25
4 *10:2 *24:A2 3517.25
*END

*D_NET *11 0.000700

*CONN
*I *22:C2 I *L 0.0016 *D OAI222_X1
*I *23:A2 I *L 0.0009 *D OR2_X1
*I *25:ZN O *L 0.0000 *D NAND2_X1

*CAP
1 *11:1 0.0003
2 *11:2 0.0004

*RES
1 *25:ZN *11:1 3517.25
2 *11:1 *22:C2 3517.25
3 *25:ZN *11:2 3517.25
4 *11:2 *23:A2 3517.25
*END

*D_NET *12 0.000700

*CONN
*I *21:B1 I *L 0.0017 *D OAI21_X1
*I *22:B1 I *L 0.0016 *D OAI222_X1
*I *23:ZN O *L 0.0000 *D OR2_X1

*CAP
1 *12:1 0.0003
2 *12:2 0.0004

*RES
1 *23:ZN *12:1 3517.25
2 *12:1 *21:B1 3517.25
3 *23:ZN *12:2 3517.25
4 *12:2 *22:B1 3517.25
*END

*D_NET *13 0.000700

*CONN
*I *21:A I *L 0.0017 *D OAI21_X1
*I *22:A1 I *L 0.0016 *D OAI222_X1
*I *24:ZN O *L 0.0000 *D NAND3_X1

*CAP
1 *13:1 0.0003
2 *13:2 0.0004

*RES
1 *24:ZN *13:1 3517.25
2 *13:1 *21:A 3517.25
3 *24:ZN *13:2 3517.25
4 *13:2 *22:A1 3517.25
*END

*D_NET *14 0.000300

*CONN
*I *19:D I *L 0.0011 *D DFF_X1
*I *22:ZN O *L 0.0000 *D OAI222_X1

*CAP
1 *14:1 0.0003

*RES
1 *22:ZN *14:1 3118
2 *14:1 *19:D 3118
*END

*D_NET *15 0.000300

*CONN
*I *20:D I *L 0.0011 *D DFF_X1
*I *21:ZN O *L 0.0000 *D OAI21_X1

*CAP
1 *15:1 0.0003

*RES
1 *21:ZN *15:1 3118
2 *15:1 *20:D 3118
*END

*D_NET *16 0.000000

*CONN
*I *20:CK I *L 0.0009 *D DFF_X1
*I *19:CK I *L 0.0009 *D DFF_X1
*P *2 I

*CAP
1 *16:1 0
2 *16:2 0

*RES
1 *2 *16:1 0
2 *16:1 *20:CK 0
3 *2 *16:2 0
4 *16:2 *19:CK 0
*END

*D_NET *17 0.000700

*CONN
*I *25:A2 I *L 0.0017 *D NAND2_X1
*I *22:A2 I *L 0.0016 *D OAI222_X1
*P *1 I

*CAP
1 *17:1 0.0003
2 *17:2 0.0004

*RES
1 *1 *17:1 3517.25
2 *17:1 *25:A2 3517.25
3 *1 *17:2 3517.25
4 *17:2 *22:A2 3517.25
*END

*D_NET *18 0.000300

*CONN
*I *28:A I *L 0.0017 *D INV_X1
*P *3 I

*CAP
1 *18:1 0.0003

*RES
1 *3 *18:1 3118
2 *18:1 *28:A 3118
*END
