*SPEF "IEEE 1481-1999"
*DESIGN "detector110"
*DATE "Thu Nov 23 22:11:12 2023"
*VENDOR "SYNOPSYS INC"
*PROGRAM "Synopsys Design Compiler cmos"
*VERSION "Q-2019.12-SP4"
*DESIGN_FLOW "SYNTHESIS"
*DIVIDER /
*DELIMITER :
*BUS_DELIMITER []
*T_UNIT 1.0 NS
*C_UNIT 0.0010 PF
*R_UNIT 1000.0 KOHM
*L_UNIT 1.0 HENRY

*PORTS

a I *L 0.000e+00 *S 0.000e+00 0.000e+00 
clk I *L 0.000e+00 *S 0.000e+00 0.000e+00 
reset I *L 0.000e+00 *S 0.000e+00 0.000e+00 
w O *L 0.000e+00 *S 1.526e-02 8.082e-03 

*R_NET a 6.993e+00
*DRIVER a
*CELL NULL
*C2_R1_C1 3.497e+00 2.308e-02 3.497e+00 
*LOADS
*RC U15:B 2.274e-02
*RC U14:B2 1.543e-02
*RC U9:A3 1.564e-02
*END

*R_NET clk 2.598e+00
*DRIVER clk
*CELL NULL
*C2_R1_C1 1.299e+00 1.407e-02 1.299e+00 
*LOADS
*RC state_reg\[1\]:CK 9.139e-03
*RC state_reg\[0\]:CK 9.139e-03
*END

*R_NET reset 4.040e+00
*DRIVER reset
*CELL NULL
*C2_R1_C1 2.020e+00 1.407e-02 2.020e+00 
*LOADS
*RC U11:A 1.390e-02
*RC U13:A1 1.452e-02
*END

*R_NET state\[1\] 1.909e+00
*DRIVER state_reg\[1\]:Q
*CELL DFF_X1
*C2_R1_C1 9.544e-01 6.236e-03 9.544e-01 
*LOADS
*RC U12:A1 1.190e-02
*END

*R_NET state\[0\] 1.900e+00
*DRIVER state_reg\[0\]:Q
*CELL DFF_X1
*C2_R1_C1 9.500e-01 6.236e-03 9.500e-01 
*LOADS
*RC U9:A1 1.185e-02
*END

*R_NET N18 1.450e+00
*DRIVER U13:ZN
*CELL NOR2_X1
*C2_R1_C1 7.250e-01 6.236e-03 7.250e-01 
*LOADS
*RC state_reg\[0\]:D 9.042e-03
*END

*R_NET N19 1.450e+00
*DRIVER U11:ZN
*CELL AOI21_X1
*C2_R1_C1 7.250e-01 6.236e-03 7.250e-01 
*LOADS
*RC state_reg\[1\]:D 9.042e-03
*END

*R_NET N20 2.283e+00
*DRIVER U10:ZN
*CELL NOR2_X1
*C2_R1_C1 1.141e+00 1.407e-02 1.141e+00 
*LOADS
*RC U14:B1 1.360e-02
*RC w 2.458e-03
*END

*R_NET n1 6.715e+00
*DRIVER state_reg\[1\]:QN
*CELL DFF_X1
*C2_R1_C1 3.357e+00 2.308e-02 3.357e+00 
*LOADS
*RC U10:A1 1.613e-02
*RC U15:A 2.012e-02
*RC U9:A2 1.541e-02
*END

*R_NET n2 6.152e+00
*DRIVER state_reg\[0\]:QN
*CELL DFF_X1
*C2_R1_C1 3.076e+00 2.308e-02 3.076e+00 
*LOADS
*RC U10:A2 1.564e-02
*RC U12:A2 1.574e-02
*RC U14:A2 1.594e-02
*END

*R_NET n3 1.957e+00
*DRIVER U12:ZN
*CELL NAND2_X1
*C2_R1_C1 9.784e-01 6.236e-03 9.784e-01 
*LOADS
*RC U11:B1 1.220e-02
*END

*R_NET n4 1.987e+00
*DRIVER U9:ZN
*CELL NAND3_X1
*C2_R1_C1 9.933e-01 6.236e-03 9.933e-01 
*LOADS
*RC U11:B2 1.239e-02
*END

*R_NET n5 1.961e+00
*DRIVER U14:ZN
*CELL AOI22_X1
*C2_R1_C1 9.805e-01 6.236e-03 9.805e-01 
*LOADS
*RC U13:A2 1.223e-02
*END

*R_NET n6 1.997e+00
*DRIVER U15:ZN
*CELL XNOR2_X1
*C2_R1_C1 9.986e-01 6.236e-03 9.986e-01 
*LOADS
*RC U14:A1 1.245e-02
*END
